
#######################################################################
#
#                 Cambridge Crystallographic Data Centre
#                                CCDC 
#
#######################################################################
#
# If this CIF has been generated from an entry in the Cambridge 
# Structural Database, then it will include bibliographic, chemical, 
# crystal, experimental, refinement or atomic coordinate data resulting 
# from the CCDC's data processing and validation procedures.
#
#######################################################################

data_101_-3164300.0
_symmetry_cell_setting           triclinic
_symmetry_space_group_name_H-M   'P -1'
_symmetry_Int_Tables_number      2
_space_group_name_Hall           '-P 1'
loop_
_symmetry_equiv_pos_site_id
_symmetry_equiv_pos_as_xyz
1 x,y,z
2 -x,-y,-z
_cell_length_a                   6.9136
_cell_length_b                   7.2915
_cell_length_c                   14.1096
_cell_angle_alpha                78.1106
_cell_angle_beta                 80.0763
_cell_angle_gamma                64.8556
_cell_volume                     627.166
loop_
_atom_site_label
_atom_site_type_symbol
_atom_site_fract_x
_atom_site_fract_y
_atom_site_fract_z
C1 C 0.211504 0.551638 0.0645777
C2 C -0.00889732 0.58818 0.10559
C3 C -0.177518 0.775296 0.0759647
C4 C -0.388364 0.815815 0.111877
C5 C -0.432863 0.665669 0.179614
C6 C -0.271064 0.47954 0.209982
C7 C -0.0549095 0.434287 0.173534
C8 C 0.0867701 0.0869701 0.270623
C9 C -0.0365271 -0.00819416 0.250587
C10 C -0.0511773 -0.176485 0.313402
C11 C 0.061434 -0.25447 0.395526
C12 C 0.183894 -0.158652 0.414524
C13 C 0.198428 0.0147971 0.354563
C14 C 0.325809 0.120254 0.377596
N1 N 0.107254 0.252712 0.204599
O1 O 0.22866 0.706791 -0.00199503
O2 O 0.372267 0.397496 0.0859356
Cl1 Cl 0.319837 -0.25933 0.519114
H1 H 0.377923 0.664332 -0.0283224
H2 H -0.137961 0.888972 0.0236936
H3 H -0.516437 0.961371 0.088289
H4 H -0.597268 0.695075 0.209783
H5 H -0.309467 0.367133 0.263743
H6 H 0.257777 0.244958 0.181005
H7 H -0.117592 0.0495282 0.184447
H8 H -0.146711 -0.250363 0.297446
H9 H 0.0548059 -0.387749 0.444758
H10 H 0.496638 0.0448551 0.352636
H11 H 0.315505 0.117555 0.456028
H12 H 0.26747 0.279734 0.342334
loop_
_geom_bond_atom_site_label_1
_geom_bond_atom_site_label_2
_geom_bond_site_symmetry_1
_geom_bond_site_symmetry_2
C1 C2 1_555 1_555
C1 O1 1_555 1_555
C1 O2 1_555 1_555
C2 C3 1_555 1_555
C2 C7 1_555 1_555
C3 C4 1_555 1_555
C3 H2 1_555 1_555
C4 C5 1_555 1_555
C4 H3 1_555 1_555
C5 C6 1_555 1_555
C5 H4 1_555 1_555
C6 C7 1_555 1_555
C6 H5 1_555 1_555
C7 N1 1_555 1_555
C8 C9 1_555 1_555
C8 C13 1_555 1_555
C8 N1 1_555 1_555
C9 C10 1_555 1_555
C9 H7 1_555 1_555
C10 C11 1_555 1_555
C10 H8 1_555 1_555
C11 C12 1_555 1_555
C11 H9 1_555 1_555
C12 C13 1_555 1_555
C12 Cl1 1_555 1_555
C13 C14 1_555 1_555
C14 H10 1_555 1_555
C14 H11 1_555 1_555
C14 H12 1_555 1_555
N1 H6 1_555 1_555
O1 H1 1_555 1_555

#END

#######################################################################
#
#                 Cambridge Crystallographic Data Centre
#                                CCDC 
#
#######################################################################
#
# If this CIF has been generated from an entry in the Cambridge 
# Structural Database, then it will include bibliographic, chemical, 
# crystal, experimental, refinement or atomic coordinate data resulting 
# from the CCDC's data processing and validation procedures.
#
#######################################################################

data_102_-3164300.0
_symmetry_cell_setting           monoclinic
_symmetry_space_group_name_H-M   'P 21/n'
_symmetry_Int_Tables_number      14
_space_group_name_Hall           '-P 2yn'
loop_
_symmetry_equiv_pos_site_id
_symmetry_equiv_pos_as_xyz
1 x,y,z
2 1/2-x,1/2+y,1/2-z
3 -x,-y,-z
4 1/2+x,1/2-y,1/2+z
_cell_length_a                   6.5446
_cell_length_b                   30.5187
_cell_length_c                   6.8545
_cell_angle_alpha                90.0000
_cell_angle_beta                 111.1941
_cell_angle_gamma                90.0000
_cell_volume                     1276.47
loop_
_atom_site_label
_atom_site_type_symbol
_atom_site_fract_x
_atom_site_fract_y
_atom_site_fract_z
C1 C 0.279801 0.53069 0.571264
C2 C 0.494378 0.551611 0.625869
C3 C 0.670687 0.537045 0.801835
C4 C 0.876577 0.555607 0.85803
C5 C 0.90803 0.589846 0.735752
C6 C 0.738565 0.604873 0.561279
C7 C 0.527422 0.586112 0.499998
C8 C 0.371535 0.634604 0.192306
C9 C 0.501316 0.627918 0.0716394
C10 C 0.512707 0.659606 -0.0694249
C11 C 0.390591 0.697931 -0.0945833
C12 C 0.2633 0.704296 0.0272606
C13 C 0.250474 0.673542 0.174325
C14 C 0.116212 0.682179 0.307103
N1 N 0.357817 0.601334 0.330249
O1 O 0.274571 0.497934 0.700943
O2 O 0.113691 0.540704 0.423527
Cl1 Cl 0.120615 0.753585 -0.00048133
H1 H 0.129329 0.484975 0.648918
H2 H 0.641115 0.510573 0.893936
H3 H 1.0107 0.543968 0.994575
H4 H 1.06809 0.605266 0.778293
H5 H 0.76637 0.631824 0.470653
H6 H 0.210051 0.587329 0.308653
H7 H 0.591023 0.597322 0.0888933
H8 H 0.613133 0.654191 -0.163422
H9 H 0.395031 0.722937 -0.205577
H10 H 0.160634 0.71373 0.387598
H11 H -0.0590814 0.683804 0.211995
H12 H 0.141195 0.656617 0.424915
loop_
_geom_bond_atom_site_label_1
_geom_bond_atom_site_label_2
_geom_bond_site_symmetry_1
_geom_bond_site_symmetry_2
C1 C2 1_555 1_555
C1 O1 1_555 1_555
C1 O2 1_555 1_555
C2 C3 1_555 1_555
C2 C7 1_555 1_555
C3 C4 1_555 1_555
C3 H2 1_555 1_555
C4 C5 1_555 1_555
C4 H3 1_555 1_555
C5 C6 1_555 1_555
C5 H4 1_555 1_555
C6 C7 1_555 1_555
C6 H5 1_555 1_555
C7 N1 1_555 1_555
C8 C9 1_555 1_555
C8 C13 1_555 1_555
C8 N1 1_555 1_555
C9 C10 1_555 1_555
C9 H7 1_555 1_555
C10 C11 1_555 1_555
C10 H8 1_555 1_555
C11 C12 1_555 1_555
C11 H9 1_555 1_555
C12 C13 1_555 1_555
C12 Cl1 1_555 1_555
C13 C14 1_555 1_555
C14 H10 1_555 1_555
C14 H11 1_555 1_555
C14 H12 1_555 1_555
N1 H6 1_555 1_555
O1 H1 1_555 1_555

#END

#######################################################################
#
#                 Cambridge Crystallographic Data Centre
#                                CCDC 
#
#######################################################################
#
# If this CIF has been generated from an entry in the Cambridge 
# Structural Database, then it will include bibliographic, chemical, 
# crystal, experimental, refinement or atomic coordinate data resulting 
# from the CCDC's data processing and validation procedures.
#
#######################################################################

data_1_-148.67
_symmetry_cell_setting           monoclinic
_symmetry_space_group_name_H-M   'P 21/c'
_symmetry_Int_Tables_number      14
_space_group_name_Hall           '-P 2ybc'
loop_
_symmetry_equiv_pos_site_id
_symmetry_equiv_pos_as_xyz
1 x,y,z
2 -x,1/2+y,1/2-z
3 -x,-y,-z
4 x,1/2-y,1/2+z
_cell_length_a                   4.8571
_cell_length_b                   31.6469
_cell_length_c                   8.3125
_cell_angle_alpha                90.0000
_cell_angle_beta                 102.2768
_cell_angle_gamma                90.0000
_cell_volume                     1248.51
loop_
_atom_site_label
_atom_site_type_symbol
_atom_site_fract_x
_atom_site_fract_y
_atom_site_fract_z
C1 C 0.606965 0.446548 0.729483
C2 C 0.420202 0.413325 0.661023
C3 C 0.260859 0.393691 0.763497
C4 C 0.288073 0.405921 0.925843
C5 C 0.473957 0.438184 0.993966
C6 C 0.629327 0.458182 0.894979
C7 C 0.769466 0.469331 0.627806
C8 C 0.228257 0.367296 0.422848
C9 C 0.29476 0.324954 0.468025
C10 C 0.115651 0.293947 0.382305
C11 C -0.11111 0.303371 0.25431
C12 C -0.166145 0.345342 0.209298
C13 C 0.00142943 0.377157 0.294289
C14 C 0.545994 0.313542 0.599382
N1 N 0.3971 0.40084 0.501371
Cl1 Cl 0.178295 0.240894 0.434676
O1 O 0.936724 0.499831 0.708966
O2 O 0.762619 0.462783 0.481613
H1 H 0.112914 0.368974 0.7124
H2 H 0.161039 0.390153 1.00091
H3 H 0.494387 0.447556 1.1216
H4 H 0.772735 0.48359 0.944013
H5 H -0.241396 0.277997 0.191392
H6 H -0.342103 0.35317 0.109321
H7 H -0.0422351 0.410178 0.263136
H8 H 0.690824 0.340229 0.627027
H9 H 0.484318 0.304194 0.713859
H10 H 0.658697 0.286751 0.560586
H11 H 0.500035 0.419385 0.433199
H12 H 1.04222 0.512107 0.633611
loop_
_geom_bond_atom_site_label_1
_geom_bond_atom_site_label_2
_geom_bond_site_symmetry_1
_geom_bond_site_symmetry_2
C1 C2 1_555 1_555
C1 C6 1_555 1_555
C1 C7 1_555 1_555
C2 C3 1_555 1_555
C2 N1 1_555 1_555
C3 C4 1_555 1_555
C3 H1 1_555 1_555
C4 C5 1_555 1_555
C4 H2 1_555 1_555
C5 C6 1_555 1_555
C5 H3 1_555 1_555
C6 H4 1_555 1_555
C7 O1 1_555 1_555
C7 O2 1_555 1_555
C8 C9 1_555 1_555
C8 C13 1_555 1_555
C8 N1 1_555 1_555
C9 C10 1_555 1_555
C9 C14 1_555 1_555
C10 C11 1_555 1_555
C10 Cl1 1_555 1_555
C11 C12 1_555 1_555
C11 H5 1_555 1_555
C12 C13 1_555 1_555
C12 H6 1_555 1_555
C13 H7 1_555 1_555
C14 H8 1_555 1_555
C14 H9 1_555 1_555
C14 H10 1_555 1_555
N1 H11 1_555 1_555
O1 H12 1_555 1_555

#END

#######################################################################
#
#                 Cambridge Crystallographic Data Centre
#                                CCDC 
#
#######################################################################
#
# If this CIF has been generated from an entry in the Cambridge 
# Structural Database, then it will include bibliographic, chemical, 
# crystal, experimental, refinement or atomic coordinate data resulting 
# from the CCDC's data processing and validation procedures.
#
#######################################################################

data_7_-148.21
_symmetry_cell_setting           triclinic
_symmetry_space_group_name_H-M   'P -1'
_symmetry_Int_Tables_number      2
_space_group_name_Hall           '-P 1'
loop_
_symmetry_equiv_pos_site_id
_symmetry_equiv_pos_as_xyz
1 x,y,z
2 -x,-y,-z
_cell_length_a                   4.8279
_cell_length_b                   8.4636
_cell_length_c                   15.7867
_cell_angle_alpha                100.2324
_cell_angle_beta                 91.2081
_cell_angle_gamma                100.6372
_cell_volume                     622.93
loop_
_atom_site_label
_atom_site_type_symbol
_atom_site_fract_x
_atom_site_fract_y
_atom_site_fract_z
C1 C 0.917948 0.308911 0.108862
C2 C 1.11882 0.397911 0.175936
C3 C 1.28826 0.309701 0.215676
C4 C 1.25633 0.141799 0.191505
C5 C 1.05565 0.0537375 0.126736
C6 C 0.890803 0.138279 0.0859958
C7 C 0.74509 0.39405 0.0622469
C8 C 1.33084 0.664533 0.267265
C9 C 1.2939 0.650121 0.354177
C10 C 1.48766 0.756144 0.415637
C11 C 1.70017 0.875371 0.394411
C12 C 1.7251 0.890219 0.308464
C13 C 1.54301 0.784164 0.245172
C14 C 1.05631 0.530147 0.37979
N1 N 1.14697 0.563559 0.200358
Cl1 Cl 1.46287 0.742096 0.524274
O1 O 0.562533 0.294008 0.00152042
O2 O 0.755836 0.54228 0.0743863
H1 H 1.44826 0.376016 0.265063
H2 H 1.39153 0.0780846 0.223391
H3 H 1.03147 -0.0781026 0.108262
H4 H 0.736173 0.0734474 0.0348128
H5 H 1.84278 0.95501 0.444882
H6 H 1.8895 0.983047 0.290915
H7 H 1.56411 0.791492 0.177513
H8 H 0.964525 0.585371 0.437866
H9 H 0.891262 0.488855 0.328039
H10 H 1.1282 0.421793 0.39443
H11 H 1.03793 0.617856 0.161701
H12 H 0.450734 0.360117 -0.0235566
loop_
_geom_bond_atom_site_label_1
_geom_bond_atom_site_label_2
_geom_bond_site_symmetry_1
_geom_bond_site_symmetry_2
C1 C2 1_555 1_555
C1 C6 1_555 1_555
C1 C7 1_555 1_555
C2 C3 1_555 1_555
C2 N1 1_555 1_555
C3 C4 1_555 1_555
C3 H1 1_555 1_555
C4 C5 1_555 1_555
C4 H2 1_555 1_555
C5 C6 1_555 1_555
C5 H3 1_555 1_555
C6 H4 1_555 1_555
C7 O1 1_555 1_555
C7 O2 1_555 1_555
C8 C9 1_555 1_555
C8 C13 1_555 1_555
C8 N1 1_555 1_555
C9 C10 1_555 1_555
C9 C14 1_555 1_555
C10 C11 1_555 1_555
C10 Cl1 1_555 1_555
C11 C12 1_555 1_555
C11 H5 1_555 1_555
C12 C13 1_555 1_555
C12 H6 1_555 1_555
C13 H7 1_555 1_555
C14 H8 1_555 1_555
C14 H9 1_555 1_555
C14 H10 1_555 1_555
N1 H11 1_555 1_555
O1 H12 1_555 1_555

#END

#######################################################################
#
#                 Cambridge Crystallographic Data Centre
#                                CCDC 
#
#######################################################################
#
# If this CIF has been generated from an entry in the Cambridge 
# Structural Database, then it will include bibliographic, chemical, 
# crystal, experimental, refinement or atomic coordinate data resulting 
# from the CCDC's data processing and validation procedures.
#
#######################################################################

data_3_-147.33
_symmetry_cell_setting           monoclinic
_symmetry_space_group_name_H-M   'P 21/c'
_symmetry_Int_Tables_number      14
_space_group_name_Hall           '-P 2ybc'
loop_
_symmetry_equiv_pos_site_id
_symmetry_equiv_pos_as_xyz
1 x,y,z
2 -x,1/2+y,1/2-z
3 -x,-y,-z
4 x,1/2-y,1/2+z
_cell_length_a                   7.8048
_cell_length_b                   11.6056
_cell_length_c                   27.6484
_cell_angle_alpha                90.0000
_cell_angle_beta                 93.2238
_cell_angle_gamma                90.0000
_cell_volume                     2500.41
loop_
_atom_site_label
_atom_site_type_symbol
_atom_site_fract_x
_atom_site_fract_y
_atom_site_fract_z
C1 C 0.550438 0.931403 0.0533666
C2 C 0.504865 1.01302 0.0890378
C3 C 0.634855 1.08701 0.108401
C4 C 0.799421 1.08247 0.0923827
C5 C 0.843175 1.00448 0.0564752
C6 C 0.718644 0.929752 0.0376775
C7 C 0.42429 0.848801 0.0329722
C8 C 0.270723 1.09288 0.13698
C9 C 0.170316 1.04745 0.173405
C10 C 0.0939651 1.12686 0.20362
C11 C 0.116835 1.24539 0.199411
C12 C 0.216826 1.28736 0.163286
C13 C 0.292106 1.21173 0.131823
C14 C 0.149779 0.919384 0.177813
N1 N 0.341799 1.01508 0.104778
Cl1 Cl -0.0349957 1.0793 0.249222
O1 O 0.482976 0.78229 -0.00242012
O2 O 0.276243 0.838027 0.0449826
H1 H 0.605555 1.14674 0.136949
H2 H 0.896144 1.14049 0.108443
H3 H 0.972462 1.0019 0.0439417
H4 H 0.749288 0.867361 0.0102498
H5 H 0.0555412 1.30324 0.223971
H6 H 0.233574 1.37972 0.159164
H7 H 0.365029 1.24431 0.102438
H8 H 0.072022 0.883645 0.147047
H9 H 0.0880705 0.895841 0.210831
H10 H 0.275147 0.876794 0.178002
H11 H 0.264864 0.95041 0.0913484
H12 H 0.386826 0.737813 -0.0162054
C15 C 0.950729 0.568699 0.946482
C16 C 0.995586 0.487333 0.910628
C17 C 0.865075 0.413815 0.89121
C18 C 0.700657 0.418584 0.90732
C19 C 0.657563 0.496372 0.943378
C20 C 0.782616 0.570627 0.962245
C21 C 1.07753 0.650716 0.966992
C22 C 1.22901 0.406438 0.862772
C23 C 1.32952 0.450924 0.826175
C24 C 1.40547 0.370745 0.796221
C25 C 1.38199 0.25237 0.800819
C26 C 1.28179 0.21134 0.837082
C27 C 1.20695 0.287757 0.868311
C28 C 1.3506 0.578854 0.821357
N2 N 1.15841 0.485075 0.894722
Cl2 Cl 1.53469 0.417126 0.750476
O3 O 1.01926 0.717272 1.00242
O4 O 1.22571 0.660996 0.955026
H13 H 0.893903 0.354253 0.862555
H14 H 0.603523 0.360927 0.891216
H15 H 0.528375 0.499157 0.955978
H16 H 0.752492 0.632828 0.989801
H17 H 1.44297 0.193886 0.776447
H18 H 1.26454 0.119101 0.841493
H19 H 1.13379 0.255927 0.89779
H20 H 1.22568 0.621919 0.821398
H21 H 1.41052 0.60138 0.787923
H22 H 1.43108 0.614817 0.851527
H23 H 1.23606 0.549116 0.908405
H24 H 1.11545 0.761577 1.01628
loop_
_geom_bond_atom_site_label_1
_geom_bond_atom_site_label_2
_geom_bond_site_symmetry_1
_geom_bond_site_symmetry_2
C1 C2 1_555 1_555
C1 C6 1_555 1_555
C1 C7 1_555 1_555
C2 C3 1_555 1_555
C2 N1 1_555 1_555
C3 C4 1_555 1_555
C3 H1 1_555 1_555
C4 C5 1_555 1_555
C4 H2 1_555 1_555
C5 C6 1_555 1_555
C5 H3 1_555 1_555
C6 H4 1_555 1_555
C7 O1 1_555 1_555
C7 O2 1_555 1_555
C8 C9 1_555 1_555
C8 C13 1_555 1_555
C8 N1 1_555 1_555
C9 C10 1_555 1_555
C9 C14 1_555 1_555
C10 C11 1_555 1_555
C10 Cl1 1_555 1_555
C11 C12 1_555 1_555
C11 H5 1_555 1_555
C12 C13 1_555 1_555
C12 H6 1_555 1_555
C13 H7 1_555 1_555
C14 H8 1_555 1_555
C14 H9 1_555 1_555
C14 H10 1_555 1_555
N1 H11 1_555 1_555
O1 H12 1_555 1_555
C15 C16 1_555 1_555
C15 C20 1_555 1_555
C15 C21 1_555 1_555
C16 C17 1_555 1_555
C16 N2 1_555 1_555
C17 C18 1_555 1_555
C17 H13 1_555 1_555
C18 C19 1_555 1_555
C18 H14 1_555 1_555
C19 C20 1_555 1_555
C19 H15 1_555 1_555
C20 H16 1_555 1_555
C21 O3 1_555 1_555
C21 O4 1_555 1_555
C22 C23 1_555 1_555
C22 C27 1_555 1_555
C22 N2 1_555 1_555
C23 C24 1_555 1_555
C23 C28 1_555 1_555
C24 C25 1_555 1_555
C24 Cl2 1_555 1_555
C25 C26 1_555 1_555
C25 H17 1_555 1_555
C26 C27 1_555 1_555
C26 H18 1_555 1_555
C27 H19 1_555 1_555
C28 H20 1_555 1_555
C28 H21 1_555 1_555
C28 H22 1_555 1_555
N2 H23 1_555 1_555
O3 H24 1_555 1_555

#END

#######################################################################
#
#                 Cambridge Crystallographic Data Centre
#                                CCDC 
#
#######################################################################
#
# If this CIF has been generated from an entry in the Cambridge 
# Structural Database, then it will include bibliographic, chemical, 
# crystal, experimental, refinement or atomic coordinate data resulting 
# from the CCDC's data processing and validation procedures.
#
#######################################################################

data_62_-147.06
_symmetry_cell_setting           triclinic
_symmetry_space_group_name_H-M   'P -1'
_symmetry_Int_Tables_number      2
_space_group_name_Hall           '-P 1'
loop_
_symmetry_equiv_pos_site_id
_symmetry_equiv_pos_as_xyz
1 x,y,z
2 -x,-y,-z
_cell_length_a                   6.9357
_cell_length_b                   7.3015
_cell_length_c                   14.0876
_cell_angle_alpha                78.0948
_cell_angle_beta                 80.2114
_cell_angle_gamma                64.7518
_cell_volume                     628.661
loop_
_atom_site_label
_atom_site_type_symbol
_atom_site_fract_x
_atom_site_fract_y
_atom_site_fract_z
C1 C 0.00744081 0.912641 0.395436
C2 C 0.0520914 1.06642 0.326989
C3 C 0.267094 1.0207 0.289609
C4 C 0.429124 0.834608 0.31985
C5 C 0.386095 0.684934 0.3884
C6 C 0.176327 0.725596 0.424949
C7 C -0.212326 0.947397 0.435309
C8 C -0.0893809 1.4143 0.230485
C9 C -0.199528 1.48516 0.145958
C10 C -0.183767 1.65725 0.0852613
C11 C -0.0609741 1.75241 0.10396
C12 C 0.0489421 1.6766 0.187108
C13 C 0.0329745 1.50977 0.250607
C14 C -0.327788 1.38116 0.122965
N1 N -0.109746 1.24914 0.297134
Cl1 Cl -0.321735 1.75868 -0.0189602
O1 O -0.228367 0.793594 0.50313
O2 O -0.373456 1.10027 0.412967
H1 H 0.304368 1.13308 0.2355
H2 H 0.592608 0.804939 0.289052
H3 H 0.514393 0.539488 0.411953
H4 H 0.137775 0.611912 0.477502
H5 H -0.0534079 1.88458 0.0541426
H6 H 0.143989 1.75054 0.20306
H7 H 0.112609 1.45305 0.317306
H8 H -0.277152 1.22484 0.16205
H9 H -0.309802 1.37548 0.0448456
H10 H -0.499321 1.46353 0.143539
H11 H -0.259673 1.26024 0.323697
H12 H -0.377113 0.836594 0.529522
loop_
_geom_bond_atom_site_label_1
_geom_bond_atom_site_label_2
_geom_bond_site_symmetry_1
_geom_bond_site_symmetry_2
C1 C2 1_555 1_555
C1 C6 1_555 1_555
C1 C7 1_555 1_555
C2 C3 1_555 1_555
C2 N1 1_555 1_555
C3 C4 1_555 1_555
C3 H1 1_555 1_555
C4 C5 1_555 1_555
C4 H2 1_555 1_555
C5 C6 1_555 1_555
C5 H3 1_555 1_555
C6 H4 1_555 1_555
C7 O1 1_555 1_555
C7 O2 1_555 1_555
C8 C9 1_555 1_555
C8 C13 1_555 1_555
C8 N1 1_555 1_555
C9 C10 1_555 1_555
C9 C14 1_555 1_555
C10 C11 1_555 1_555
C10 Cl1 1_555 1_555
C11 C12 1_555 1_555
C11 H5 1_555 1_555
C12 C13 1_555 1_555
C12 H6 1_555 1_555
C13 H7 1_555 1_555
C14 H8 1_555 1_555
C14 H9 1_555 1_555
C14 H10 1_555 1_555
N1 H11 1_555 1_555
O1 H12 1_555 1_555

#END

#######################################################################
#
#                 Cambridge Crystallographic Data Centre
#                                CCDC 
#
#######################################################################
#
# If this CIF has been generated from an entry in the Cambridge 
# Structural Database, then it will include bibliographic, chemical, 
# crystal, experimental, refinement or atomic coordinate data resulting 
# from the CCDC's data processing and validation procedures.
#
#######################################################################

data_61_-147.01
_symmetry_cell_setting           triclinic
_symmetry_space_group_name_H-M   'P -1'
_symmetry_Int_Tables_number      2
_space_group_name_Hall           '-P 1'
loop_
_symmetry_equiv_pos_site_id
_symmetry_equiv_pos_as_xyz
1 x,y,z
2 -x,-y,-z
_cell_length_a                   7.0342
_cell_length_b                   7.1038
_cell_length_c                   13.9948
_cell_angle_alpha                80.9104
_cell_angle_beta                 77.2542
_cell_angle_gamma                67.1477
_cell_volume                     626.508
loop_
_atom_site_label
_atom_site_type_symbol
_atom_site_fract_x
_atom_site_fract_y
_atom_site_fract_z
C1 C 0.0110196 0.907974 0.393221
C2 C 0.0676489 1.05254 0.321525
C3 C 0.28258 1.00579 0.283202
C4 C 0.433122 0.828603 0.315966
C5 C 0.378104 0.689203 0.388134
C6 C 0.168239 0.730068 0.425307
C7 C -0.209234 0.942113 0.433684
C8 C -0.0586416 1.39218 0.226421
C9 C -0.18372 1.47324 0.152508
C10 C -0.163814 1.64583 0.0940437
C11 C -0.0251134 1.73384 0.105254
C12 C 0.096271 1.65009 0.178471
C13 C 0.0783441 1.48138 0.239594
C14 C -0.329501 1.37385 0.140697
N1 N -0.0839476 1.2253 0.288958
Cl1 Cl -0.314672 1.75959 0.00191045
O1 O -0.23759 0.799057 0.504774
O2 O -0.360777 1.08613 0.409154
H1 H 0.329514 1.10884 0.225738
H2 H 0.596969 0.79762 0.284113
H3 H 0.497364 0.550955 0.413773
H4 H 0.120673 0.623607 0.480405
H5 H -0.0148005 1.86694 0.0575594
H6 H 0.202784 1.7192 0.188946
H7 H 0.167148 1.42031 0.299188
H8 H -0.247796 1.20753 0.139894
H9 H -0.392025 1.43186 0.0726507
H10 H -0.463522 1.40162 0.201471
H11 H -0.232999 1.23188 0.315998
H12 H -0.385891 0.843476 0.532447
loop_
_geom_bond_atom_site_label_1
_geom_bond_atom_site_label_2
_geom_bond_site_symmetry_1
_geom_bond_site_symmetry_2
C1 C2 1_555 1_555
C1 C6 1_555 1_555
C1 C7 1_555 1_555
C2 C3 1_555 1_555
C2 N1 1_555 1_555
C3 C4 1_555 1_555
C3 H1 1_555 1_555
C4 C5 1_555 1_555
C4 H2 1_555 1_555
C5 C6 1_555 1_555
C5 H3 1_555 1_555
C6 H4 1_555 1_555
C7 O1 1_555 1_555
C7 O2 1_555 1_555
C8 C9 1_555 1_555
C8 C13 1_555 1_555
C8 N1 1_555 1_555
C9 C10 1_555 1_555
C9 C14 1_555 1_555
C10 C11 1_555 1_555
C10 Cl1 1_555 1_555
C11 C12 1_555 1_555
C11 H5 1_555 1_555
C12 C13 1_555 1_555
C12 H6 1_555 1_555
C13 H7 1_555 1_555
C14 H8 1_555 1_555
C14 H9 1_555 1_555
C14 H10 1_555 1_555
N1 H11 1_555 1_555
O1 H12 1_555 1_555

#END

#######################################################################
#
#                 Cambridge Crystallographic Data Centre
#                                CCDC 
#
#######################################################################
#
# If this CIF has been generated from an entry in the Cambridge 
# Structural Database, then it will include bibliographic, chemical, 
# crystal, experimental, refinement or atomic coordinate data resulting 
# from the CCDC's data processing and validation procedures.
#
#######################################################################

data_2_-146.93
_symmetry_cell_setting           monoclinic
_symmetry_space_group_name_H-M   'P 21/n'
_symmetry_Int_Tables_number      14
_space_group_name_Hall           '-P 2yn'
loop_
_symmetry_equiv_pos_site_id
_symmetry_equiv_pos_as_xyz
1 x,y,z
2 1/2-x,1/2+y,1/2-z
3 -x,-y,-z
4 1/2+x,1/2-y,1/2+z
_cell_length_a                   3.8646
_cell_length_b                   22.0660
_cell_length_c                   14.5890
_cell_angle_alpha                90.0000
_cell_angle_beta                 96.2865
_cell_angle_gamma                90.0000
_cell_volume                     1236.61
loop_
_atom_site_label
_atom_site_type_symbol
_atom_site_fract_x
_atom_site_fract_y
_atom_site_fract_z
C1 C 0.590881 0.468262 0.285002
C2 C 0.441046 0.410278 0.263177
C3 C 0.271714 0.401648 0.173467
C4 C 0.261991 0.447156 0.108009
C5 C 0.418562 0.503426 0.128541
C6 C 0.578251 0.513399 0.216746
C7 C 0.757132 0.481674 0.377973
C8 C 0.403151 0.303508 0.319425
C9 C 0.298786 0.271216 0.395587
C10 C 0.279787 0.208115 0.38785
C11 C 0.353143 0.177011 0.309221
C12 C 0.456523 0.20994 0.235759
C13 C 0.485598 0.272619 0.240872
C14 C 0.211609 0.304722 0.479584
N1 N 0.445908 0.366235 0.329642
Cl1 Cl 0.159608 0.164778 0.479417
O1 O 0.916277 0.535962 0.385447
O2 O 0.760574 0.44835 0.445296
H1 H 0.138177 0.359214 0.156644
H2 H 0.126206 0.438862 0.0398766
H3 H 0.411035 0.538866 0.0767427
H4 H 0.696616 0.556939 0.235059
H5 H 0.33245 0.127995 0.306655
H6 H 0.521543 0.186396 0.174496
H7 H 0.582998 0.297513 0.184944
H8 H 0.0781859 0.347356 0.460225
H9 H 0.0446067 0.277749 0.51944
H10 H 0.44671 0.316118 0.525724
H11 H 0.53785 0.380967 0.393845
H12 H 1.02264 0.540222 0.448566
loop_
_geom_bond_atom_site_label_1
_geom_bond_atom_site_label_2
_geom_bond_site_symmetry_1
_geom_bond_site_symmetry_2
C1 C2 1_555 1_555
C1 C6 1_555 1_555
C1 C7 1_555 1_555
C2 C3 1_555 1_555
C2 N1 1_555 1_555
C3 C4 1_555 1_555
C3 H1 1_555 1_555
C4 C5 1_555 1_555
C4 H2 1_555 1_555
C5 C6 1_555 1_555
C5 H3 1_555 1_555
C6 H4 1_555 1_555
C7 O1 1_555 1_555
C7 O2 1_555 1_555
C8 C9 1_555 1_555
C8 C13 1_555 1_555
C8 N1 1_555 1_555
C9 C10 1_555 1_555
C9 C14 1_555 1_555
C10 C11 1_555 1_555
C10 Cl1 1_555 1_555
C11 C12 1_555 1_555
C11 H5 1_555 1_555
C12 C13 1_555 1_555
C12 H6 1_555 1_555
C13 H7 1_555 1_555
C14 H8 1_555 1_555
C14 H9 1_555 1_555
C14 H10 1_555 1_555
N1 H11 1_555 1_555
O1 H12 1_555 1_555

#END

#######################################################################
#
#                 Cambridge Crystallographic Data Centre
#                                CCDC 
#
#######################################################################
#
# If this CIF has been generated from an entry in the Cambridge 
# Structural Database, then it will include bibliographic, chemical, 
# crystal, experimental, refinement or atomic coordinate data resulting 
# from the CCDC's data processing and validation procedures.
#
#######################################################################

data_4_-146.8
_symmetry_cell_setting           triclinic
_symmetry_space_group_name_H-M   'P -1'
_symmetry_Int_Tables_number      2
_space_group_name_Hall           '-P 1'
loop_
_symmetry_equiv_pos_site_id
_symmetry_equiv_pos_as_xyz
1 x,y,z
2 -x,-y,-z
_cell_length_a                   7.6468
_cell_length_b                   14.0179
_cell_length_c                   18.2730
_cell_angle_alpha                102.5172
_cell_angle_beta                 99.3078
_cell_angle_gamma                91.4654
_cell_volume                     1883.25
loop_
_atom_site_label
_atom_site_type_symbol
_atom_site_fract_x
_atom_site_fract_y
_atom_site_fract_z
C1 C 0.77196 0.104817 0.139916
C2 C 0.858617 0.173365 0.206263
C3 C 0.756596 0.210782 0.262671
C4 C 0.579637 0.180412 0.254468
C5 C 0.495257 0.111688 0.19006
C6 C 0.592131 0.0751515 0.133682
C7 C 0.868139 0.0649664 0.0781885
C8 C 1.13646 0.269981 0.275074
C9 C 1.22088 0.353523 0.261518
C10 C 1.3307 0.414276 0.32391
C11 C 1.35299 0.396666 0.396792
C12 C 1.26539 0.314544 0.408592
C13 C 1.15921 0.250893 0.347891
C14 C 1.19391 0.374952 0.183683
N1 N 1.03326 0.203298 0.213328
Cl1 Cl 1.44529 0.517182 0.311352
O1 O 0.772123 -0.00312436 0.0214274
O2 O 1.02263 0.0874894 0.0754985
H1 H 0.818168 0.26509 0.312671
H2 H 0.505392 0.211275 0.29906
H3 H 0.356417 0.0880198 0.184208
H4 H 0.529945 0.022504 0.0827934
H5 H 1.43882 0.446506 0.443208
H6 H 1.28294 0.29942 0.4651
H7 H 1.09482 0.184844 0.355915
H8 H 1.30055 0.347514 0.152635
H9 H 1.19353 0.453741 0.186976
H10 H 1.06818 0.340215 0.150033
H11 H 1.09002 0.177071 0.166879
H12 H 0.850666 -0.0295225 -0.0136976
C15 C 0.438579 0.104756 0.473146
C16 C 0.525298 0.173098 0.539603
C17 C 0.423245 0.210407 0.596026
C18 C 0.24623 0.180102 0.587743
C19 C 0.16181 0.111557 0.523236
C20 C 0.258703 0.0751399 0.466839
C21 C 0.534802 0.0649746 0.411415
C22 C 0.803104 0.269739 0.608439
C23 C 0.887812 0.353151 0.594811
C24 C 0.997602 0.413953 0.657185
C25 C 1.0196 0.396508 0.730117
C26 C 0.931763 0.314503 0.741981
C27 C 0.825607 0.250803 0.681301
C28 C 0.861119 0.374337 0.516898
N2 N 0.69996 0.203035 0.546699
Cl2 Cl 1.11255 0.516707 0.644569
O3 O 0.43873 -0.00297423 0.354574
O4 O 0.689381 0.0874251 0.408806
H13 H 0.48482 0.264595 0.646098
H14 H 0.171975 0.21088 0.632353
H15 H 0.0229295 0.0879336 0.517323
H16 H 0.196496 0.0226293 0.415875
H17 H 1.10541 0.446378 0.776517
H18 H 0.949108 0.299504 0.798526
H19 H 0.76106 0.184831 0.689383
H20 H 0.967185 0.34617 0.485753
H21 H 0.861975 0.453112 0.520043
H22 H 0.734885 0.340076 0.483409
H23 H 0.756721 0.176722 0.500264
H24 H 0.51711 -0.0294371 0.319398
C29 C 0.105456 0.104904 0.806691
C30 C 0.192146 0.173253 0.873147
C31 C 0.0900571 0.210597 0.929546
C32 C -0.0869884 0.180331 0.921234
C33 C -0.171391 0.111787 0.856725
C34 C -0.0744523 0.0753285 0.800353
C35 C 0.201704 0.0651244 0.744966
C36 C 0.469941 0.269823 0.942049
C37 C 0.55442 0.353283 0.928384
C38 C 0.664089 0.414182 0.990741
C39 C 0.68611 0.396777 1.06369
C40 C 0.598472 0.314736 1.07559
C41 C 0.492462 0.250933 1.01492
C42 C 0.527547 0.374234 0.850393
N3 N 0.366903 0.203067 0.880315
Cl3 Cl 0.778894 0.517003 0.978151
O5 O 0.105715 -0.00291612 0.688168
O6 O 0.356226 0.0876556 0.742331
H25 H 0.151637 0.264771 0.979627
H26 H -0.161277 0.211139 0.965825
H27 H -0.310294 0.0881947 0.85079
H28 H -0.136647 0.0228192 0.749387
H29 H 0.771802 0.446722 1.11008
H30 H 0.615854 0.299789 1.13215
H31 H 0.428053 0.184931 1.02302
H32 H 0.631975 0.344591 0.818788
H33 H 0.531005 0.452987 0.853375
H34 H 0.400058 0.341094 0.817398
H35 H 0.423505 0.176994 0.833792
H36 H 0.184093 -0.0294045 0.652999
loop_
_geom_bond_atom_site_label_1
_geom_bond_atom_site_label_2
_geom_bond_site_symmetry_1
_geom_bond_site_symmetry_2
C1 C2 1_555 1_555
C1 C6 1_555 1_555
C1 C7 1_555 1_555
C2 C3 1_555 1_555
C2 N1 1_555 1_555
C3 C4 1_555 1_555
C3 H1 1_555 1_555
C4 C5 1_555 1_555
C4 H2 1_555 1_555
C5 C6 1_555 1_555
C5 H3 1_555 1_555
C6 H4 1_555 1_555
C7 O1 1_555 1_555
C7 O2 1_555 1_555
C8 C9 1_555 1_555
C8 C13 1_555 1_555
C8 N1 1_555 1_555
C9 C10 1_555 1_555
C9 C14 1_555 1_555
C10 C11 1_555 1_555
C10 Cl1 1_555 1_555
C11 C12 1_555 1_555
C11 H5 1_555 1_555
C12 C13 1_555 1_555
C12 H6 1_555 1_555
C13 H7 1_555 1_555
C14 H8 1_555 1_555
C14 H9 1_555 1_555
C14 H10 1_555 1_555
N1 H11 1_555 1_555
O1 H12 1_555 1_555
C15 C16 1_555 1_555
C15 C20 1_555 1_555
C15 C21 1_555 1_555
C16 C17 1_555 1_555
C16 N2 1_555 1_555
C17 C18 1_555 1_555
C17 H13 1_555 1_555
C18 C19 1_555 1_555
C18 H14 1_555 1_555
C19 C20 1_555 1_555
C19 H15 1_555 1_555
C20 H16 1_555 1_555
C21 O3 1_555 1_555
C21 O4 1_555 1_555
C22 C23 1_555 1_555
C22 C27 1_555 1_555
C22 N2 1_555 1_555
C23 C24 1_555 1_555
C23 C28 1_555 1_555
C24 C25 1_555 1_555
C24 Cl2 1_555 1_555
C25 C26 1_555 1_555
C25 H17 1_555 1_555
C26 C27 1_555 1_555
C26 H18 1_555 1_555
C27 H19 1_555 1_555
C28 H20 1_555 1_555
C28 H21 1_555 1_555
C28 H22 1_555 1_555
N2 H23 1_555 1_555
O3 H24 1_555 1_555
C29 C30 1_555 1_555
C29 C34 1_555 1_555
C29 C35 1_555 1_555
C30 C31 1_555 1_555
C30 N3 1_555 1_555
C31 C32 1_555 1_555
C31 H25 1_555 1_555
C32 C33 1_555 1_555
C32 H26 1_555 1_555
C33 C34 1_555 1_555
C33 H27 1_555 1_555
C34 H28 1_555 1_555
C35 O5 1_555 1_555
C35 O6 1_555 1_555
C36 C37 1_555 1_555
C36 C41 1_555 1_555
C36 N3 1_555 1_555
C37 C38 1_555 1_555
C37 C42 1_555 1_555
C38 C39 1_555 1_555
C38 Cl3 1_555 1_555
C39 C40 1_555 1_555
C39 H29 1_555 1_555
C40 C41 1_555 1_555
C40 H30 1_555 1_555
C41 H31 1_555 1_555
C42 H32 1_555 1_555
C42 H33 1_555 1_555
C42 H34 1_555 1_555
N3 H35 1_555 1_555
O5 H36 1_555 1_555

#END

#######################################################################
#
#                 Cambridge Crystallographic Data Centre
#                                CCDC 
#
#######################################################################
#
# If this CIF has been generated from an entry in the Cambridge 
# Structural Database, then it will include bibliographic, chemical, 
# crystal, experimental, refinement or atomic coordinate data resulting 
# from the CCDC's data processing and validation procedures.
#
#######################################################################

data_52_-143.48
_symmetry_cell_setting           triclinic
_symmetry_space_group_name_H-M   'P -1'
_symmetry_Int_Tables_number      2
_space_group_name_Hall           '-P 1'
loop_
_symmetry_equiv_pos_site_id
_symmetry_equiv_pos_as_xyz
1 x,y,z
2 -x,-y,-z
_cell_length_a                   6.7889
_cell_length_b                   10.7080
_cell_length_c                   9.0175
_cell_angle_alpha                93.2000
_cell_angle_beta                 85.2934
_cell_angle_gamma                103.3741
_cell_volume                     635.145
loop_
_atom_site_label
_atom_site_type_symbol
_atom_site_fract_x
_atom_site_fract_y
_atom_site_fract_z
C1 C 0.95128 0.200511 0.633096
C2 C 1.07841 0.177865 0.742225
C3 C 1.04697 0.0515226 0.791731
C4 C 0.901022 -0.0472637 0.733793
C5 C 0.779021 -0.0257288 0.62437
C6 C 0.805554 0.0975722 0.575735
C7 C 0.972206 0.32958 0.579083
C8 C 1.34522 0.268702 0.915247
C9 C 1.32732 0.339869 1.0499
C10 C 1.4622 0.332779 1.15715
C11 C 1.60493 0.257783 1.13639
C12 C 1.61727 0.187361 1.00289
C13 C 1.48952 0.193899 0.892384
C14 C 1.17086 0.418502 1.07887
N1 N 1.22129 0.276551 0.799374
Cl1 Cl 1.45126 0.42041 1.32541
O1 O 0.85389 0.334361 0.467778
O2 O 1.08437 0.428063 0.626298
H1 H 1.13794 0.0325029 0.877616
H2 H 0.881112 -0.143183 0.77519
H3 H 0.665191 -0.103942 0.579215
H4 H 0.712181 0.11749 0.491969
H5 H 1.70501 0.255518 1.2236
H6 H 1.72923 0.129154 0.984508
H7 H 1.50131 0.14242 0.785939
H8 H 1.24187 0.521355 1.08809
H9 H 1.08257 0.393752 1.18464
H10 H 1.06619 0.402912 0.990466
H11 H 1.22024 0.364788 0.763355
H12 H 0.873492 0.423438 0.44205
loop_
_geom_bond_atom_site_label_1
_geom_bond_atom_site_label_2
_geom_bond_site_symmetry_1
_geom_bond_site_symmetry_2
C1 C2 1_555 1_555
C1 C6 1_555 1_555
C1 C7 1_555 1_555
C2 C3 1_555 1_555
C2 N1 1_555 1_555
C3 C4 1_555 1_555
C3 H1 1_555 1_555
C4 C5 1_555 1_555
C4 H2 1_555 1_555
C5 C6 1_555 1_555
C5 H3 1_555 1_555
C6 H4 1_555 1_555
C7 O1 1_555 1_555
C7 O2 1_555 1_555
C8 C9 1_555 1_555
C8 C13 1_555 1_555
C8 N1 1_555 1_555
C9 C10 1_555 1_555
C9 C14 1_555 1_555
C10 C11 1_555 1_555
C10 Cl1 1_555 1_555
C11 C12 1_555 1_555
C11 H5 1_555 1_555
C12 C13 1_555 1_555
C12 H6 1_555 1_555
C13 H7 1_555 1_555
C14 H8 1_555 1_555
C14 H9 1_555 1_555
C14 H10 1_555 1_555
N1 H11 1_555 1_555
O1 H12 1_555 1_555

#END

#######################################################################
#
#                 Cambridge Crystallographic Data Centre
#                                CCDC 
#
#######################################################################
#
# If this CIF has been generated from an entry in the Cambridge 
# Structural Database, then it will include bibliographic, chemical, 
# crystal, experimental, refinement or atomic coordinate data resulting 
# from the CCDC's data processing and validation procedures.
#
#######################################################################

data_51_-141.75
_symmetry_cell_setting           triclinic
_symmetry_space_group_name_H-M   'P -1'
_symmetry_Int_Tables_number      2
_space_group_name_Hall           '-P 1'
loop_
_symmetry_equiv_pos_site_id
_symmetry_equiv_pos_as_xyz
1 x,y,z
2 -x,-y,-z
_cell_length_a                   7.6544
_cell_length_b                   9.2490
_cell_length_c                   9.5424
_cell_angle_alpha                107.3152
_cell_angle_beta                 93.3332
_cell_angle_gamma                101.4435
_cell_volume                     627.146
loop_
_atom_site_label
_atom_site_type_symbol
_atom_site_fract_x
_atom_site_fract_y
_atom_site_fract_z
C1 C 0.936454 0.192931 0.636436
C2 C 1.04424 0.198091 0.765591
C3 C 1.00775 0.0679277 0.816482
C4 C 0.872726 -0.0609005 0.742537
C5 C 0.767373 -0.0666384 0.615129
C6 C 0.800266 0.0600423 0.564054
C7 C 0.967169 0.32447 0.578753
C8 C 1.28648 0.34197 0.970546
C9 C 1.43695 0.274751 0.9636
C10 C 1.53923 0.298535 1.09847
C11 C 1.49953 0.38651 1.23358
C12 C 1.35172 0.453318 1.23662
C13 C 1.24515 0.430396 1.1054
C14 C 1.4842 0.181168 0.81947
N1 N 1.17674 0.325448 0.839219
Cl1 Cl 1.72524 0.216044 1.09942
O1 O 0.853576 0.304496 0.457893
O2 O 1.08398 0.444544 0.630336
H1 H 1.08697 0.0706873 0.915793
H2 H 0.848571 -0.15903 0.78498
H3 H 0.661707 -0.168312 0.557705
H4 H 0.720395 0.059013 0.46588
H5 H 1.58405 0.401836 1.33464
H6 H 1.31955 0.522427 1.34145
H7 H 1.12806 0.480269 1.10533
H8 H 1.45494 0.0569536 0.808358
H9 H 1.62768 0.215896 0.811774
H10 H 1.40759 0.195702 0.726431
H11 H 1.1951 0.413307 0.794042
H12 H 0.887453 0.394122 0.424107
loop_
_geom_bond_atom_site_label_1
_geom_bond_atom_site_label_2
_geom_bond_site_symmetry_1
_geom_bond_site_symmetry_2
C1 C2 1_555 1_555
C1 C6 1_555 1_555
C1 C7 1_555 1_555
C2 C3 1_555 1_555
C2 N1 1_555 1_555
C3 C4 1_555 1_555
C3 H1 1_555 1_555
C4 C5 1_555 1_555
C4 H2 1_555 1_555
C5 C6 1_555 1_555
C5 H3 1_555 1_555
C6 H4 1_555 1_555
C7 O1 1_555 1_555
C7 O2 1_555 1_555
C8 C9 1_555 1_555
C8 C13 1_555 1_555
C8 N1 1_555 1_555
C9 C10 1_555 1_555
C9 C14 1_555 1_555
C10 C11 1_555 1_555
C10 Cl1 1_555 1_555
C11 C12 1_555 1_555
C11 H5 1_555 1_555
C12 C13 1_555 1_555
C12 H6 1_555 1_555
C13 H7 1_555 1_555
C14 H8 1_555 1_555
C14 H9 1_555 1_555
C14 H10 1_555 1_555
N1 H11 1_555 1_555
O1 H12 1_555 1_555

#END
